<?xml version="1.0" encoding="UTF-8"?>

<!-- generated on 05/18/19 11:34:01 by Eclipse SUMO netconvert Version 1.2.0
<configuration xmlns:xsi="http://www.w3.org/2001/XMLSchema-instance" xsi:noNamespaceSchemaLocation="http://sumo.dlr.de/xsd/netconvertConfiguration.xsd">

    <input>
        <type-files value="C:\Program%20Files%20(x86)\Eclipse\Sumo\data\typemap\osmNetconvert.typ.xml"/>
        <osm-files value="osm_bbox.osm.xml"/>
    </input>

    <output>
        <output-file value="osm.net.xml"/>
        <output.street-names value="true"/>
        <output.original-names value="true"/>
    </output>

    <projection>
        <proj.utm value="true"/>
    </projection>

    <processing>
        <geometry.remove value="true"/>
        <roundabouts.guess value="true"/>
    </processing>

    <tls_building>
        <tls.discard-simple value="true"/>
        <tls.join value="true"/>
        <tls.guess-signals value="true"/>
        <tls.default-type value="actuated"/>
    </tls_building>

    <ramp_guessing>
        <ramps.guess value="true"/>
    </ramp_guessing>

    <junctions>
        <junctions.join value="true"/>
        <junctions.corner-detail value="5"/>
    </junctions>

    <report>
        <verbose value="true"/>
    </report>

</configuration>
-->

<net version="1.1" junctionCornerDetail="5" limitTurnSpeed="5.50" xmlns:xsi="http://www.w3.org/2001/XMLSchema-instance" xsi:noNamespaceSchemaLocation="http://sumo.dlr.de/xsd/net_file.xsd">

    <location netOffset="-670772.50,-4560622.67" convBoundary="0.00,0.00,1594.46,1426.41" origBoundary="29.036386,41.178772,29.055172,41.191497" projParameter="+proj=utm +zone=35 +ellps=WGS84 +datum=WGS84 +units=m +no_defs"/>

    <type id="highway.bridleway" priority="1" numLanes="1" speed="2.78" allow="pedestrian" oneway="1" width="2.00"/>
    <type id="highway.bus_guideway" priority="1" numLanes="1" speed="27.78" allow="bus" oneway="1"/>
    <type id="highway.cycleway" priority="1" numLanes="1" speed="8.33" allow="bicycle" oneway="0" width="1.00"/>
    <type id="highway.footway" priority="1" numLanes="1" speed="2.78" allow="pedestrian" oneway="1" width="2.00"/>
    <type id="highway.ford" priority="1" numLanes="1" speed="2.78" allow="army" oneway="0"/>
    <type id="highway.living_street" priority="2" numLanes="1" speed="2.78" disallow="tram rail_urban rail rail_electric ship" oneway="0"/>
    <type id="highway.motorway" priority="14" numLanes="2" speed="39.44" allow="private emergency authority army vip passenger hov taxi bus coach delivery truck trailer motorcycle evehicle custom1 custom2" oneway="1"/>
    <type id="highway.motorway_link" priority="9" numLanes="1" speed="22.22" allow="private emergency authority army vip passenger hov taxi bus coach delivery truck trailer motorcycle evehicle custom1 custom2" oneway="1"/>
    <type id="highway.path" priority="1" numLanes="1" speed="2.78" allow="bicycle pedestrian" oneway="1" width="2.00"/>
    <type id="highway.pedestrian" priority="1" numLanes="1" speed="2.78" allow="pedestrian" oneway="1" width="2.00"/>
    <type id="highway.primary" priority="12" numLanes="2" speed="27.78" disallow="tram rail_urban rail rail_electric ship" oneway="0"/>
    <type id="highway.primary_link" priority="7" numLanes="1" speed="22.22" disallow="tram rail_urban rail rail_electric ship" oneway="0"/>
    <type id="highway.raceway" priority="15" numLanes="2" speed="83.33" allow="vip" oneway="0"/>
    <type id="highway.residential" priority="3" numLanes="1" speed="13.89" disallow="tram rail_urban rail rail_electric ship" oneway="0"/>
    <type id="highway.secondary" priority="11" numLanes="2" speed="27.78" disallow="tram rail_urban rail rail_electric ship" oneway="0"/>
    <type id="highway.secondary_link" priority="6" numLanes="1" speed="22.22" disallow="tram rail_urban rail rail_electric ship" oneway="0"/>
    <type id="highway.service" priority="1" numLanes="1" speed="5.56" allow="delivery bicycle pedestrian" oneway="0"/>
    <type id="highway.stairs" priority="1" numLanes="1" speed="1.39" allow="pedestrian" oneway="1" width="2.00"/>
    <type id="highway.step" priority="1" numLanes="1" speed="1.39" allow="pedestrian" oneway="1" width="2.00"/>
    <type id="highway.steps" priority="1" numLanes="1" speed="1.39" allow="pedestrian" oneway="1" width="2.00"/>
    <type id="highway.tertiary" priority="10" numLanes="1" speed="22.22" disallow="tram rail_urban rail rail_electric ship" oneway="0"/>
    <type id="highway.tertiary_link" priority="5" numLanes="1" speed="22.22" disallow="tram rail_urban rail rail_electric ship" oneway="0"/>
    <type id="highway.track" priority="1" numLanes="1" speed="5.56" disallow="tram rail_urban rail rail_electric ship" oneway="0"/>
    <type id="highway.trunk" priority="13" numLanes="2" speed="27.78" disallow="tram rail_urban rail rail_electric bicycle pedestrian ship" oneway="0"/>
    <type id="highway.trunk_link" priority="8" numLanes="1" speed="22.22" disallow="tram rail_urban rail rail_electric bicycle pedestrian ship" oneway="0"/>
    <type id="highway.unclassified" priority="4" numLanes="1" speed="13.89" disallow="tram rail_urban rail rail_electric ship" oneway="0"/>
    <type id="highway.unsurfaced" priority="1" numLanes="1" speed="8.33" disallow="tram rail_urban rail rail_electric ship" oneway="0"/>
    <type id="railway.light_rail" priority="19" numLanes="1" speed="27.78" allow="rail_urban" oneway="1"/>
    <type id="railway.preserved" priority="16" numLanes="1" speed="27.78" allow="rail" oneway="1"/>
    <type id="railway.rail" priority="20" numLanes="1" speed="83.33" allow="rail rail_electric" oneway="1"/>
    <type id="railway.subway" priority="18" numLanes="1" speed="27.78" allow="rail_urban" oneway="1"/>
    <type id="railway.tram" priority="17" numLanes="1" speed="13.89" allow="tram" oneway="1"/>

    <edge id=":2203113069_0" function="internal">
        <lane id=":2203113069_0_0" index="0" disallow="tram rail_urban rail rail_electric ship" speed="8.08" length="11.46" shape="1108.59,642.60 1105.60,640.60 1102.86,639.61 1100.37,639.62 1098.13,640.63"/>
    </edge>
    <edge id=":2203113069_1" function="internal">
        <lane id=":2203113069_1_0" index="0" disallow="tram rail_urban rail rail_electric ship" speed="7.43" length="16.42" shape="1108.59,642.60 1105.24,639.06 1104.38,635.84 1106.01,632.93 1110.13,630.33"/>
    </edge>
    <edge id=":2203113069_2" function="internal">
        <lane id=":2203113069_2_0" index="0" disallow="tram rail_urban rail rail_electric ship" speed="3.65" length="4.67" shape="1108.59,642.60 1108.15,641.23 1108.34,640.35 1109.16,639.98 1110.59,640.11"/>
    </edge>
    <edge id=":2203113069_3" function="internal">
        <lane id=":2203113069_3_0" index="0" disallow="tram rail_urban rail rail_electric ship" speed="5.73" length="9.19" shape="1111.46,633.24 1109.15,634.70 1108.24,636.32 1108.72,638.13 1110.59,640.11"/>
    </edge>
    <edge id=":2203113069_4" function="internal">
        <lane id=":2203113069_4_0" index="0" disallow="tram rail_urban rail rail_electric ship" speed="22.22" length="15.27" shape="1111.46,633.24 1108.03,634.86 1104.61,636.62 1101.28,638.54 1098.13,640.63"/>
    </edge>
    <edge id=":2203113069_5" function="internal">
        <lane id=":2203113069_5_0" index="0" disallow="tram rail_urban rail rail_electric ship" speed="3.65" length="2.34" shape="1111.46,633.24 1110.03,633.01 1109.34,632.45"/>
    </edge>
    <edge id=":2203113069_9" function="internal">
        <lane id=":2203113069_9_0" index="0" disallow="tram rail_urban rail rail_electric ship" speed="3.65" length="2.34" shape="1109.34,632.45 1109.37,631.55 1110.13,630.33"/>
    </edge>
    <edge id=":2203113069_6" function="internal">
        <lane id=":2203113069_6_0" index="0" disallow="tram rail_urban rail rail_electric ship" speed="22.22" length="15.89" shape="1096.26,638.03 1099.51,635.89 1103.02,633.86 1106.62,632.00 1110.13,630.33"/>
    </edge>
    <edge id=":2203113069_7" function="internal">
        <lane id=":2203113069_7_0" index="0" disallow="tram rail_urban rail rail_electric ship" speed="9.35" length="5.92" shape="1096.26,638.03 1099.49,636.49 1101.83,636.38"/>
    </edge>
    <edge id=":2203113069_8" function="internal">
        <lane id=":2203113069_8_0" index="0" disallow="tram rail_urban rail rail_electric ship" speed="3.65" length="2.34" shape="1096.26,638.03 1097.70,637.98 1098.50,638.40"/>
    </edge>
    <edge id=":2203113069_10" function="internal">
        <lane id=":2203113069_10_0" index="0" disallow="tram rail_urban rail rail_electric ship" speed="9.35" length="9.72" shape="1101.83,636.38 1102.95,636.33 1106.65,637.53 1110.59,640.11"/>
    </edge>
    <edge id=":2203113069_11" function="internal">
        <lane id=":2203113069_11_0" index="0" disallow="tram rail_urban rail rail_electric ship" speed="3.65" length="2.34" shape="1098.50,638.40 1098.64,639.28 1098.13,640.63"/>
    </edge>
    <edge id=":2203113072_0" function="internal">
        <lane id=":2203113072_0_0" index="0" disallow="tram rail_urban rail rail_electric ship" speed="3.65" length="4.67" shape="1224.76,583.65 1226.18,583.92 1226.86,584.50 1226.81,585.39 1226.01,586.60"/>
    </edge>
    <edge id=":2263847097_0" function="internal">
        <lane id=":2263847097_0_0" index="0" disallow="tram rail_urban rail rail_electric ship" speed="9.17" length="13.09" shape="967.24,696.28 964.10,693.33 961.18,691.47 958.47,690.70 955.99,691.00"/>
    </edge>
    <edge id=":2263847097_1" function="internal">
        <lane id=":2263847097_1_0" index="0" disallow="tram rail_urban rail rail_electric ship" speed="7.38" length="17.97" shape="967.24,696.28 963.96,691.76 963.60,688.37 966.15,686.10 971.61,684.96"/>
    </edge>
    <edge id=":2263847097_2" function="internal">
        <lane id=":2263847097_2_0" index="0" disallow="tram rail_urban rail rail_electric ship" speed="3.65" length="4.67" shape="967.24,696.28 967.00,694.85 967.32,694.02 968.17,693.76 969.58,694.10"/>
    </edge>
    <edge id=":2263847097_3" function="internal">
        <lane id=":2263847097_3_0" index="0" disallow="tram rail_urban rail rail_electric ship" speed="5.54" length="9.45" shape="971.88,688.15 969.01,688.75 967.67,689.94 967.86,691.72 969.58,694.10"/>
    </edge>
    <edge id=":2263847097_4" function="internal">
        <lane id=":2263847097_4_0" index="0" disallow="tram rail_urban rail rail_electric ship" speed="22.22" length="16.18" shape="971.88,688.15 967.95,688.54 963.83,689.10 959.75,689.91 955.99,691.00"/>
    </edge>
    <edge id=":2263847097_5" function="internal">
        <lane id=":2263847097_5_0" index="0" disallow="tram rail_urban rail rail_electric ship" speed="3.65" length="2.34" shape="971.88,688.15 970.61,687.45 970.15,686.69"/>
    </edge>
    <edge id=":2263847097_9" function="internal">
        <lane id=":2263847097_9_0" index="0" disallow="tram rail_urban rail rail_electric ship" speed="3.65" length="2.34" shape="970.15,686.69 970.48,685.86 971.61,684.96"/>
    </edge>
    <edge id=":2263847097_6" function="internal">
        <lane id=":2263847097_6_0" index="0" disallow="tram rail_urban rail rail_electric ship" speed="22.22" length="17.01" shape="954.91,687.99 958.80,686.87 963.16,686.00 967.56,685.37 971.61,684.96"/>
    </edge>
    <edge id=":2263847097_7" function="internal">
        <lane id=":2263847097_7_0" index="0" disallow="tram rail_urban rail rail_electric ship" speed="10.33" length="6.06" shape="954.91,687.99 958.35,687.47 960.86,688.06"/>
    </edge>
    <edge id=":2263847097_8" function="internal">
        <lane id=":2263847097_8_0" index="0" disallow="tram rail_urban rail rail_electric ship" speed="3.65" length="2.44" shape="954.91,687.99 956.31,688.34 956.95,688.96 956.94,689.06"/>
    </edge>
    <edge id=":2263847097_10" function="internal">
        <lane id=":2263847097_10_0" index="0" disallow="tram rail_urban rail rail_electric ship" speed="10.33" length="10.74" shape="960.86,688.06 961.95,688.31 965.69,690.52 969.58,694.10"/>
    </edge>
    <edge id=":2263847097_11" function="internal">
        <lane id=":2263847097_11_0" index="0" disallow="tram rail_urban rail rail_electric ship" speed="3.65" length="2.24" shape="956.94,689.06 956.85,689.85 955.99,691.00"/>
    </edge>
    <edge id=":2263847239_0" function="internal">
        <lane id=":2263847239_0_0" index="0" disallow="tram rail_urban rail rail_electric ship" speed="3.65" length="4.67" shape="1023.79,1079.66 1023.60,1081.09 1023.05,1081.80 1022.16,1081.79 1020.91,1081.07"/>
    </edge>
    <edge id=":2263847267_0" function="internal">
        <lane id=":2263847267_0_0" index="0" disallow="tram rail_urban rail rail_electric ship" speed="3.65" length="4.67" shape="994.11,1144.91 993.36,1146.15 992.58,1146.58 991.76,1146.21 990.92,1145.04"/>
    </edge>
    <edge id=":2264084575_0" function="internal">
        <lane id=":2264084575_0_0" index="0" disallow="tram rail_urban rail rail_electric ship" speed="3.65" length="4.67" shape="1566.03,616.47 1565.75,617.88 1565.16,618.56 1564.27,618.49 1563.07,617.69"/>
    </edge>
    <edge id=":2397006753_0" function="internal">
        <lane id=":2397006753_0_0" index="0" disallow="tram rail_urban rail rail_electric ship" speed="3.65" length="4.67" shape="1.12,1346.00 -0.30,1346.26 -1.15,1345.96 -1.42,1345.11 -1.12,1343.70"/>
    </edge>
    <edge id=":256939152_0" function="internal">
        <lane id=":256939152_0_0" index="0" disallow="tram rail_urban rail rail_electric ship" speed="22.22" length="0.20" shape="872.24,823.05 872.18,823.04 872.14,823.04 872.10,823.04 872.04,823.04"/>
    </edge>
    <edge id=":256939152_1" function="internal">
        <lane id=":256939152_1_0" index="0" disallow="tram rail_urban rail rail_electric ship" speed="22.22" length="0.60" shape="872.13,819.84 872.31,819.85 872.43,819.85 872.55,819.86 872.73,819.89"/>
    </edge>
    <edge id=":350167653_0" function="internal">
        <lane id=":350167653_0_0" index="0" disallow="tram rail_urban rail rail_electric ship" speed="3.65" length="4.67" shape="924.01,-1.60 925.24,-0.85 925.68,-0.07 925.31,0.75 924.15,1.60"/>
    </edge>
    <edge id=":350181882_0" function="internal">
        <lane id=":350181882_0_0" index="0" disallow="tram rail_urban rail rail_electric ship" speed="3.70" length="4.35" shape="919.79,891.53 918.57,892.09 917.74,892.01 917.30,891.30 917.26,889.96"/>
    </edge>
    <edge id=":350182752_0" function="internal">
        <lane id=":350182752_0_0" index="0" disallow="tram rail_urban rail rail_electric ship" speed="13.89" length="3.80" shape="957.23,863.64 954.30,866.05"/>
    </edge>
    <edge id=":350182752_1" function="internal">
        <lane id=":350182752_1_0" index="0" disallow="tram rail_urban rail rail_electric ship" speed="6.13" length="15.69" shape="957.23,863.64 952.96,867.24 951.06,867.94 951.51,865.74 954.33,860.64"/>
    </edge>
    <edge id=":350182752_2" function="internal">
        <lane id=":350182752_2_0" index="0" disallow="tram rail_urban rail rail_electric ship" speed="13.89" length="4.01" shape="951.97,863.86 952.77,862.98 953.27,862.34 953.72,861.66 954.33,860.64"/>
    </edge>
    <edge id=":350182752_3" function="internal">
        <lane id=":350182752_3_0" index="0" disallow="tram rail_urban rail rail_electric ship" speed="3.65" length="2.54" shape="951.97,863.86 953.37,863.53 954.23,863.79 954.30,863.98"/>
    </edge>
    <edge id=":350182752_4" function="internal">
        <lane id=":350182752_4_0" index="0" disallow="tram rail_urban rail rail_electric ship" speed="3.65" length="2.13" shape="954.30,863.98 954.54,864.63 954.30,866.05"/>
    </edge>
    <edge id=":350187760_0" function="internal">
        <lane id=":350187760_0_0" index="0" disallow="tram rail_urban rail rail_electric ship" speed="3.65" length="4.67" shape="1469.91,1425.23 1470.27,1426.63 1470.03,1427.49 1469.19,1427.81 1467.77,1427.60"/>
    </edge>
    <edge id=":350190284_0" function="internal">
        <lane id=":350190284_0_0" index="0" disallow="tram rail_urban rail rail_electric ship" speed="11.78" length="11.35" shape="1027.25,697.96 1025.18,695.48 1023.37,693.72 1021.22,692.54 1018.17,691.80"/>
    </edge>
    <edge id=":350190284_1" function="internal">
        <lane id=":350190284_1_0" index="0" disallow="tram rail_urban rail rail_electric ship" speed="7.76" length="14.77" shape="1027.25,697.96 1025.09,694.43 1024.72,691.20 1026.12,688.27 1029.31,685.63"/>
    </edge>
    <edge id=":350190284_2" function="internal">
        <lane id=":350190284_2_0" index="0" disallow="tram rail_urban rail rail_electric ship" speed="3.65" length="4.67" shape="1027.25,697.96 1027.10,696.52 1027.46,695.70 1028.33,695.50 1029.71,695.92"/>
    </edge>
    <edge id=":350190284_3" function="internal">
        <lane id=":350190284_3_0" index="0" disallow="tram rail_urban rail rail_electric ship" speed="6.22" length="9.05" shape="1030.98,688.37 1029.02,689.98 1028.16,691.78 1028.39,693.75 1029.71,695.92"/>
    </edge>
    <edge id=":350190284_4" function="internal">
        <lane id=":350190284_4_0" index="0" disallow="tram rail_urban rail rail_electric ship" speed="13.23" length="13.56" shape="1030.98,688.37 1027.87,690.11 1024.82,691.34 1021.65,691.95 1018.17,691.80"/>
    </edge>
    <edge id=":350190284_5" function="internal">
        <lane id=":350190284_5_0" index="0" disallow="tram rail_urban rail rail_electric ship" speed="3.65" length="2.34" shape="1030.98,688.37 1029.53,688.31 1028.78,687.83"/>
    </edge>
    <edge id=":350190284_9" function="internal">
        <lane id=":350190284_9_0" index="0" disallow="tram rail_urban rail rail_electric ship" speed="3.65" length="2.34" shape="1028.78,687.83 1028.70,686.94 1029.31,685.63"/>
    </edge>
    <edge id=":350190284_6" function="internal">
        <lane id=":350190284_6_0" index="0" disallow="tram rail_urban rail rail_electric ship" speed="12.16" length="11.42" shape="1018.65,688.64 1021.80,688.85 1024.23,688.40 1026.54,687.31 1029.31,685.63"/>
    </edge>
    <edge id=":350190284_7" function="internal">
        <lane id=":350190284_7_0" index="0" disallow="tram rail_urban rail rail_electric ship" speed="12.84" length="4.56" shape="1018.65,688.64 1022.02,689.55 1022.95,690.07"/>
    </edge>
    <edge id=":350190284_8" function="internal">
        <lane id=":350190284_8_0" index="0" disallow="tram rail_urban rail rail_electric ship" speed="3.65" length="2.14" shape="1018.65,688.64 1019.72,689.61 1019.93,690.27"/>
    </edge>
    <edge id=":350190284_10" function="internal">
        <lane id=":350190284_10_0" index="0" disallow="tram rail_urban rail rail_electric ship" speed="12.84" length="9.01" shape="1022.95,690.07 1024.84,691.12 1027.33,693.26 1029.71,695.92"/>
    </edge>
    <edge id=":350190284_11" function="internal">
        <lane id=":350190284_11_0" index="0" disallow="tram rail_urban rail rail_electric ship" speed="3.65" length="2.53" shape="1019.93,690.27 1019.99,690.46 1019.47,691.19 1018.17,691.80"/>
    </edge>
    <edge id=":3691279989_0" function="internal">
        <lane id=":3691279989_0_0" index="0" disallow="tram rail_urban rail rail_electric ship" speed="3.65" length="4.67" shape="697.95,951.97 696.63,952.56 695.74,952.47 695.28,951.70 695.25,950.26"/>
    </edge>
    <edge id=":3691280017_0" function="internal">
        <lane id=":3691280017_0_0" index="0" disallow="tram rail_urban rail rail_electric ship" speed="22.22" length="1.77" shape="816.00,740.06 814.74,738.82"/>
    </edge>
    <edge id=":3691280017_1" function="internal">
        <lane id=":3691280017_1_0" index="0" disallow="tram rail_urban rail rail_electric ship" speed="22.22" length="0.58" shape="817.11,736.67 817.23,736.80 817.32,736.88 817.42,736.94 817.57,737.02"/>
    </edge>
    <edge id=":3691280082_0" function="internal">
        <lane id=":3691280082_0_0" index="0" disallow="tram rail_urban rail rail_electric ship" speed="13.89" length="9.09" shape="967.81,845.91 967.39,848.56 966.86,850.33 966.03,852.00 964.70,854.35"/>
    </edge>
    <edge id=":3691280082_1" function="internal">
        <lane id=":3691280082_1_0" index="0" disallow="tram rail_urban rail rail_electric ship" speed="6.42" length="4.01" shape="962.50,847.27 964.33,848.81 965.14,850.21"/>
    </edge>
    <edge id=":3691280082_2" function="internal">
        <lane id=":3691280082_2_0" index="0" disallow="tram rail_urban rail rail_electric ship" speed="6.42" length="4.32" shape="965.14,850.21 965.31,850.51 965.43,852.35 964.70,854.35"/>
    </edge>
    <edge id=":3691400372_0" function="internal">
        <lane id=":3691400372_0_0" index="0" disallow="tram rail_urban rail rail_electric ship" speed="3.65" length="4.67" shape="889.77,854.76 891.16,855.13 891.80,855.76 891.67,856.65 890.80,857.79"/>
    </edge>
    <edge id=":cluster_256939147_256939149_3691280028_3691280039_3691280040_3691280064_3691280077_3691280080_0" function="internal">
        <lane id=":cluster_256939147_256939149_3691280028_3691280039_3691280040_3691280064_3691280077_3691280080_0_0" index="0" disallow="tram rail_urban rail rail_electric ship" speed="8.61" length="31.06" shape="957.16,853.89 957.55,845.24 955.32,842.96 950.47,847.05 943.01,857.53"/>
    </edge>
    <edge id=":cluster_256939147_256939149_3691280028_3691280039_3691280040_3691280064_3691280077_3691280080_1" function="internal">
        <lane id=":cluster_256939147_256939149_3691280028_3691280039_3691280040_3691280064_3691280077_3691280080_1_0" index="0" disallow="tram rail_urban rail rail_electric ship" speed="11.61" length="24.27" shape="957.16,853.89 934.03,846.52"/>
    </edge>
    <edge id=":cluster_256939147_256939149_3691280028_3691280039_3691280040_3691280064_3691280077_3691280080_2" function="internal">
        <lane id=":cluster_256939147_256939149_3691280028_3691280039_3691280040_3691280064_3691280077_3691280080_2_0" index="0" disallow="tram rail_urban rail rail_electric ship" speed="12.76" length="14.43" shape="957.16,853.89 952.54,840.22"/>
    </edge>
    <edge id=":cluster_256939147_256939149_3691280028_3691280039_3691280040_3691280064_3691280077_3691280080_3" function="internal">
        <lane id=":cluster_256939147_256939149_3691280028_3691280039_3691280040_3691280064_3691280077_3691280080_3_0" index="0" disallow="tram rail_urban rail rail_electric ship" speed="6.59" length="12.36" shape="957.16,853.89 955.65,850.39 955.91,848.04 957.95,846.84 961.77,846.79"/>
    </edge>
    <edge id=":cluster_256939147_256939149_3691280028_3691280039_3691280040_3691280064_3691280077_3691280080_4" function="internal">
        <lane id=":cluster_256939147_256939149_3691280028_3691280039_3691280040_3691280064_3691280077_3691280080_4_0" index="0" disallow="tram rail_urban rail rail_electric ship" speed="18.06" length="8.58" shape="970.77,836.31 969.51,838.52 968.80,840.12 968.38,841.82 968.02,844.33"/>
    </edge>
    <edge id=":cluster_256939147_256939149_3691280028_3691280039_3691280040_3691280064_3691280077_3691280080_5" function="internal">
        <lane id=":cluster_256939147_256939149_3691280028_3691280039_3691280040_3691280064_3691280077_3691280080_5_0" index="0" disallow="tram rail_urban rail rail_electric ship" speed="8.03" length="13.81" shape="970.77,836.31 961.77,846.79"/>
    </edge>
    <edge id=":cluster_256939147_256939149_3691280028_3691280039_3691280040_3691280064_3691280077_3691280080_6" function="internal">
        <lane id=":cluster_256939147_256939149_3691280028_3691280039_3691280040_3691280064_3691280077_3691280080_6_0" index="0" disallow="tram rail_urban rail rail_electric ship" speed="18.06" length="35.00" shape="970.77,836.31 965.74,840.86 956.95,846.96 948.13,853.05 943.01,857.53"/>
    </edge>
    <edge id=":cluster_256939147_256939149_3691280028_3691280039_3691280040_3691280064_3691280077_3691280080_7" function="internal">
        <lane id=":cluster_256939147_256939149_3691280028_3691280039_3691280040_3691280064_3691280077_3691280080_7_0" index="0" disallow="tram rail_urban rail rail_electric ship" speed="13.59" length="39.58" shape="970.77,836.31 964.32,841.57 953.80,845.59 942.57,847.53 934.03,846.52"/>
    </edge>
    <edge id=":cluster_256939147_256939149_3691280028_3691280039_3691280040_3691280064_3691280077_3691280080_8" function="internal">
        <lane id=":cluster_256939147_256939149_3691280028_3691280039_3691280040_3691280064_3691280077_3691280080_8_0" index="0" disallow="tram rail_urban rail rail_electric ship" speed="8.01" length="13.61" shape="970.77,836.31 967.68,844.13 963.61,847.38"/>
    </edge>
    <edge id=":cluster_256939147_256939149_3691280028_3691280039_3691280040_3691280064_3691280077_3691280080_17" function="internal">
        <lane id=":cluster_256939147_256939149_3691280028_3691280039_3691280040_3691280064_3691280077_3691280080_17_0" index="0" disallow="tram rail_urban rail rail_electric ship" speed="8.01" length="13.61" shape="963.61,847.38 958.56,846.08 952.54,840.22"/>
    </edge>
    <edge id=":cluster_256939147_256939149_3691280028_3691280039_3691280040_3691280064_3691280077_3691280080_9" function="internal">
        <lane id=":cluster_256939147_256939149_3691280028_3691280039_3691280040_3691280064_3691280077_3691280080_9_0" index="0" disallow="tram rail_urban rail rail_electric ship" speed="11.45" length="16.03" shape="936.97,839.85 942.30,841.17 946.67,841.68 950.08,841.36 952.54,840.22"/>
    </edge>
    <edge id=":cluster_256939147_256939149_3691280028_3691280039_3691280040_3691280064_3691280077_3691280080_10" function="internal">
        <lane id=":cluster_256939147_256939149_3691280028_3691280039_3691280040_3691280064_3691280077_3691280080_10_0" index="0" disallow="tram rail_urban rail rail_electric ship" speed="18.06" length="25.80" shape="936.97,839.85 942.28,841.15 949.59,842.84 956.80,844.76 961.77,846.79"/>
    </edge>
    <edge id=":cluster_256939147_256939149_3691280028_3691280039_3691280040_3691280064_3691280077_3691280080_11" function="internal">
        <lane id=":cluster_256939147_256939149_3691280028_3691280039_3691280040_3691280064_3691280077_3691280080_11_0" index="0" disallow="tram rail_urban rail rail_electric ship" speed="9.17" length="13.28" shape="936.97,839.85 942.82,842.59 945.77,846.45 945.80,848.41"/>
    </edge>
    <edge id=":cluster_256939147_256939149_3691280028_3691280039_3691280040_3691280064_3691280077_3691280080_12" function="internal">
        <lane id=":cluster_256939147_256939149_3691280028_3691280039_3691280040_3691280064_3691280077_3691280080_12_0" index="0" disallow="tram rail_urban rail rail_electric ship" speed="5.08" length="7.24" shape="936.97,839.85 938.74,842.62 938.84,844.66 937.36,845.88"/>
    </edge>
    <edge id=":cluster_256939147_256939149_3691280028_3691280039_3691280040_3691280064_3691280077_3691280080_18" function="internal">
        <lane id=":cluster_256939147_256939149_3691280028_3691280039_3691280040_3691280064_3691280077_3691280080_18_0" index="0" disallow="tram rail_urban rail rail_electric ship" speed="9.17" length="9.74" shape="945.80,848.41 945.83,851.43 943.01,857.53"/>
    </edge>
    <edge id=":cluster_256939147_256939149_3691280028_3691280039_3691280040_3691280064_3691280077_3691280080_19" function="internal">
        <lane id=":cluster_256939147_256939149_3691280028_3691280039_3691280040_3691280064_3691280077_3691280080_19_0" index="0" disallow="tram rail_urban rail rail_electric ship" speed="5.08" length="3.41" shape="937.36,845.88 937.27,845.96 934.03,846.52"/>
    </edge>
    <edge id=":cluster_256939147_256939149_3691280028_3691280039_3691280040_3691280064_3691280077_3691280080_13" function="internal">
        <lane id=":cluster_256939147_256939149_3691280028_3691280039_3691280040_3691280064_3691280077_3691280080_13_0" index="0" disallow="tram rail_urban rail rail_electric ship" speed="6.36" length="9.04" shape="936.51,853.91 937.38,851.57 937.26,849.56 936.14,847.88 934.03,846.52"/>
    </edge>
    <edge id=":cluster_256939147_256939149_3691280028_3691280039_3691280040_3691280064_3691280077_3691280080_14" function="internal">
        <lane id=":cluster_256939147_256939149_3691280028_3691280039_3691280040_3691280064_3691280077_3691280080_14_0" index="0" disallow="tram rail_urban rail rail_electric ship" speed="18.06" length="21.17" shape="936.51,853.91 939.48,850.35 943.95,846.58 948.71,843.05 952.54,840.22"/>
    </edge>
    <edge id=":cluster_256939147_256939149_3691280028_3691280039_3691280040_3691280064_3691280077_3691280080_15" function="internal">
        <lane id=":cluster_256939147_256939149_3691280028_3691280039_3691280040_3691280064_3691280077_3691280080_15_0" index="0" disallow="tram rail_urban rail rail_electric ship" speed="10.84" length="28.50" shape="936.51,853.91 941.20,848.89 947.96,845.69 955.32,844.82 961.77,846.79"/>
    </edge>
    <edge id=":cluster_256939147_256939149_3691280028_3691280039_3691280040_3691280064_3691280077_3691280080_16" function="internal">
        <lane id=":cluster_256939147_256939149_3691280028_3691280039_3691280040_3691280064_3691280077_3691280080_16_0" index="0" disallow="tram rail_urban rail rail_electric ship" speed="5.06" length="10.85" shape="936.51,853.91 939.50,852.38 941.57,852.47 942.74,854.19 943.01,857.53"/>
    </edge>
    <edge id=":cluster_3691280087_3691280088_0" function="internal">
        <lane id=":cluster_3691280087_3691280088_0_0" index="0" disallow="tram rail_urban rail rail_electric ship" speed="22.22" length="15.26" shape="862.89,761.37 848.22,757.18"/>
    </edge>
    <edge id=":cluster_3691280087_3691280088_1" function="internal">
        <lane id=":cluster_3691280087_3691280088_1_0" index="0" disallow="tram rail_urban rail rail_electric ship" speed="8.30" length="10.29" shape="862.89,761.37 858.29,759.55 855.97,756.53 855.95,755.00"/>
    </edge>