<?xml version="1.0" encoding="UTF-8"?>

<!-- generated on 05/18/19 11:34:01 by Eclipse SUMO polyconvert Version 1.2.0
<configuration xmlns:xsi="http://www.w3.org/2001/XMLSchema-instance" xsi:noNamespaceSchemaLocation="http://sumo.dlr.de/xsd/polyconvertConfiguration.xsd">

    <input>
        <net-file value="osm.net.xml"/>
        <osm-files value="osm_bbox.osm.xml"/>
        <osm.keep-full-type value="true"/>
        <type-file value="C:\Program%20Files%20(x86)\Eclipse\Sumo\data\typemap\osmPolyconvert.typ.xml"/>
    </input>

    <output>
        <output-file value="osm.poly.xml"/>
    </output>

    <processing>
        <poi-layer-offset value="5"/>
    </processing>

    <report>
        <verbose value="true"/>
    </report>

</configuration>
-->

<additional xmlns:xsi="http://www.w3.org/2001/XMLSchema-instance" xsi:noNamespaceSchemaLocation="http://sumo.dlr.de/xsd/additional_file.xsd">
    <location netOffset="-670772.50,-4560622.67" convBoundary="-1560.40,-718.87,1654.14,1450.17" origBoundary="29.017671,41.172187,29.055775,41.192065" projParameter="+proj=utm +zone=35 +ellps=WGS84 +datum=WGS84 +units=m +no_defs"/>

    <poly id="296886061" type="landuse.residential" color="235,235,227" fill="1" layer="-3.00" shape="1099.901594,661.036170 1139.391619,694.270065 1178.324119,706.640524 1299.700283,682.675894 1313.321344,684.419106 1381.213500,659.494139 1416.394566,655.870038 1437.983113,705.101360 1514.687781,657.413383 1506.516672,626.738782 1553.038310,605.953997 1596.535248,596.695259 1599.346753,566.146765 1616.349769,543.753994 1579.271643,519.305692 1557.564250,513.838472 1498.251646,489.520774 1498.585598,486.396076 1416.244399,451.759839 1411.836119,439.414278 1374.812909,439.973487 1354.252700,474.790961 1312.081211,527.460888 1238.388044,575.210888 1104.647924,629.488993 1099.901594,661.036170"/>
    <poly id="365095790" type="landuse.forest" color="140,196,107" fill="1" layer="-3.00" shape="906.302069,1121.497521 905.915548,1102.981797 902.078296,1087.395230 903.862863,1068.264108 893.563428,1040.583894 889.750341,1019.332615 875.233066,990.086855 879.657617,967.174351 881.148106,959.466865 902.571468,908.505800 922.890916,869.515890 932.297787,853.130248 870.028722,874.259159 861.861541,884.686611 858.653708,904.750675 833.693503,920.226136 810.534117,905.529174 777.770264,904.214183 778.009883,928.991560 784.993215,957.471138 800.500645,990.661253 790.814723,993.243837 804.687067,1009.966172 843.284156,1056.507605 863.882766,1097.982370 906.302069,1121.497521"/>
    <poly id="365095791" type="landuse.forest" color="140,196,107" fill="1" layer="-3.00" shape="660.136954,748.119256 640.614428,731.464418 625.969244,719.378707 609.775756,702.468934 602.832237,694.041158 590.989020,718.068063 576.855060,712.437329 570.884428,726.182554 538.476004,714.346287 543.343773,740.409790 550.008910,774.624635 556.751382,805.186649 597.407576,819.205198 591.433886,833.439103 562.684994,849.459638 535.652270,877.095522 561.814935,879.354082 572.701660,882.098100 591.939216,861.221944 601.883209,868.731572 616.068795,843.937707 647.813939,855.758771 686.582953,865.434540 710.270073,866.980044 724.873610,895.094392 748.235889,882.258115 768.020732,873.458990 801.994662,882.200592 822.879332,883.014039 842.422336,870.588080 865.457269,857.411209 882.775683,855.008333 895.302643,844.394692 897.648627,836.351874 888.616690,832.173602 870.624153,828.273244 838.314916,826.524362 806.133948,826.100541 777.917561,826.592127 759.207812,824.996835 742.208805,820.953536 723.007430,812.070777 706.109684,804.075358 691.444624,792.488910 676.190609,770.968856 667.414725,755.888447 660.136954,748.119256"/>
    <poly id="365095792" type="natural.grassland" color="140,196,107" fill="1" layer="-4.00" shape="561.814935,879.354082 561.721633,912.976975 586.765357,913.565306 615.437581,914.727753 628.952144,918.844398 655.094997,928.723195 689.790513,942.102336 696.222190,943.730953 701.708535,943.093454 708.036193,942.364656 705.866017,950.078405 710.773474,953.004208 715.493193,949.638246 741.290071,967.440629 750.279090,973.439493 775.908940,998.336351 794.171398,1018.927674 804.687067,1009.966172 790.814723,993.243837 800.500645,990.661253 784.993215,957.471138 778.009883,928.991560 777.770264,904.214183 810.534117,905.529174 833.693503,920.226136 858.653708,904.750675 861.861541,884.686611 870.028722,874.259159 932.297787,853.130248 931.977556,849.979028 929.004993,848.276116 917.635951,843.920598 904.378119,838.165415 897.648627,836.351874 895.302643,844.394692 882.775683,855.008333 865.457269,857.411209 842.422336,870.588080 822.879332,883.014039 801.994662,882.200592 768.020732,873.458990 748.235889,882.258115 724.873610,895.094392 710.270073,866.980044 686.582953,865.434540 647.813939,855.758771 616.068795,843.937707 601.883209,868.731572 591.939216,861.221944 572.701660,882.098100 561.814935,879.354082"/>
    <poly id="365095794" type="natural.grassland" color="140,196,107" fill="1" layer="-4.00" shape="929.484439,1063.535204 927.386336,1050.355660 924.072573,1036.058874 919.351382,1018.096506 913.643615,999.622150 907.156749,979.307681 902.712675,963.829029 901.277566,954.208688 901.276570,939.989894 906.093395,925.728981 919.286356,901.078915 926.376019,889.015439 935.332490,875.007509 944.101647,861.828310 949.250335,854.506885 951.421249,853.902599 953.729062,854.612329 954.188876,856.111683 952.961401,859.059840 947.894524,862.906254 938.520518,873.260780 931.602221,885.172762 922.731971,902.648551 915.830153,920.992707 907.076474,940.293036 905.646272,944.724955 908.559338,962.144868 915.779310,986.608924 924.796144,1019.224437 930.187728,1036.869338 934.581331,1047.714615 940.828287,1056.470712 929.484439,1063.535204"/>
    <poly id="662212899" type="building.yes" color="255,230,230" fill="1" layer="-1.00" shape="1145.731730,656.706373 1137.446295,642.925494 1149.752145,636.383836 1156.616148,649.586913 1145.731730,656.706373"/>
    <poly id="662212923" type="building.yes" color="255,230,230" fill="1" layer="-1.00" shape="1208.277148,660.280241 1202.004859,648.324095 1213.399146,641.294497 1220.912755,653.279921 1208.277148,660.280241"/>
    <poly id="662212924" type="building.yes" color="255,230,230" fill="1" layer="-1.00" shape="1184.271980,666.857029 1183.507468,653.009008 1197.241481,652.099746 1198.771596,666.576784 1184.271980,666.857029"/>
    <poly id="662212926" type="building.yes" color="255,230,230" fill="1" layer="-1.00" shape="1158.897058,665.325779 1159.551245,650.744720 1174.960963,651.730022 1174.457718,666.314639 1158.897058,665.325779"/>
    <poly id="662212928" type="building.yes" color="255,230,230" fill="1" layer="-1.00" shape="1138.990154,683.174391 1145.229795,669.813598 1156.770753,676.139706 1152.552179,689.559234 1138.990154,683.174391"/>
    <poly id="662212930" type="building.yes" color="255,230,230" fill="1" layer="-1.00" shape="1156.511929,693.529408 1163.054600,680.486807 1174.477530,685.410501 1168.843851,699.407627 1156.511929,693.529408"/>
    <poly id="662212932" type="building.yes" color="255,230,230" fill="1" layer="-1.00" shape="1181.026121,698.461762 1180.461013,682.918851 1192.322251,682.420882 1193.212322,697.349384 1181.026121,698.461762"/>
    <poly id="662212934" type="building.yes" color="255,230,230" fill="1" layer="-1.00" shape="1202.290496,696.008230 1198.557705,682.412368 1210.654206,678.343058 1214.557069,691.487492 1202.290496,696.008230"/>
</additional>
